    6
 MP2/CC-PVTZ-F12  OPTSTEP=2  ENERGY=-115.54067691
 C          0.0000000000        0.0110805095       -0.7308929492
 O          0.0000000000       -0.0652801331        0.6924250623
 H          0.0000000000        0.8260966126        1.0435887911
 H          0.0000000000        1.0419961976       -1.0831417216
 H          0.8889388024       -0.4819585015       -1.1209810844
 H         -0.8889388024       -0.4819585015       -1.1209810844
