    6
 MP2/CC-PVTZ-F12  ENERGY=-115.54067807
 C          0.0000000000        0.0111500356       -0.7305284368
 O          0.0000000000       -0.0653068035        0.6919853828
 H          0.0000000000        0.8249217451        1.0457082678
 H          0.0000000000        1.0419923658       -1.0824961092
 H          0.8884914379       -0.4815717279       -1.1210458670
 H         -0.8884914379       -0.4815717279       -1.1210458670
