    6
 HF-SCF001/CC-PVTZ-F12  OPTSTEP=5  ENERGY=-115.09809076
 C          0.0000000000        0.0117559904       -0.7189901551
 O          0.0000000000       -0.0640284631        0.6804885665
 H          0.0000000000        0.7922416013        1.0599344065
 H          0.0000000000        1.0379743586       -1.0683294893
 H          0.8821526592       -0.4769788291       -1.1127429597
 H         -0.8821526592       -0.4769788291       -1.1127429597
