    6
 HF-SCF001/CC-PVTZ-F12  OPTSTEP=4  ENERGY=-115.09809075
 C          0.0000000000        0.0117615596       -0.7190036785
 O          0.0000000000       -0.0640358779        0.6804742711
 H          0.0000000000        0.7922276574        1.0600522001
 H          0.0000000000        1.0380091112       -1.0681732924
 H          0.8821351815       -0.4769635675       -1.1126859219
 H         -0.8821351815       -0.4769635675       -1.1126859219
