    6
 HF-SCF001/CC-PVTZ-F12  OPTSTEP=2  ENERGY=-115.09954132
 C          0.0003686472        0.0106596147       -0.7174143211
 O         -0.0010025168       -0.0630163354        0.6792246540
 H          0.0078556726        0.7988889213        1.0498905369
 H          0.7802427784        0.6712081521       -1.0837228748
 H          0.1684417808       -0.9834700947       -1.1016063037
 H         -0.9450198583        0.3866302828       -1.0971580594
