    6
 HF-SCF001/CC-PVTZ-F12  OPTSTEP=1  ENERGY=-115.09964538
 C          0.0000053086        0.0105834426       -0.7172958627
 O         -0.0000051501       -0.0629485274        0.6791304660
 H         -0.0000746282        0.7994020083        1.0491765606
 H          0.8742815829        0.5357679085       -1.0901666343
 H          0.0000859824       -0.9976938779       -1.1010343632
 H         -0.8742744462        0.5356125764       -1.0904887782
