    6
 HF-SCF000/CC-PVTZ-F12  OPTSTEP=1  ENERGY=-115.09946200
 C          0.0000000000        0.0140559371       -0.7223288924
 O          0.0000000000       -0.0642921542        0.6861352128
 H          0.0000000000        0.8107030694        1.0367071864
 H          0.8872903395        0.5164416804       -1.0976524276
 H          0.0000000000       -0.9905495108       -1.1251289399
 H         -0.8872903395        0.5164416804       -1.0976524276
