    6
 CCSD(T)-F12/AUG-CC-PVQZ-F12  ENERGY=-115.60803234
 C          0.0000000016        0.0131383709       -0.7277313707
 O         -0.0000000011       -0.0639802775        0.6896454957
 H          0.0000001117        0.8281583315        1.0384492597
 H          0.8901500369        0.5201901836       -1.1082931192
 H         -0.0000025514       -1.0095226651       -1.0969318381
 H         -0.8901475993        0.5201946071       -1.1082929080
