    6
 CCSD(T)-F12/AUG-CC-PVQZ-F12  OPTSTEP=1  ENERGY=-115.60782944
 C          0.0000002544        0.0138620907       -0.7279132702
 O          0.0000003389       -0.0651367169        0.6930446812
 H         -0.0000052173        0.8319962675        1.0294378887
 H          0.8911462240        0.5165734485       -1.1116792621
 H          0.0000024859       -0.9963789562       -1.1329365065
 H         -0.8911519049        0.5165621589       -1.1116796553
