    6
 CCSD(T)-F12/AUG-CC-PVQZ-F12  OPTSTEP=2  ENERGY=-115.60802347
 C          0.0000000321        0.0128072112       -0.7272980168
 O          0.0000000391       -0.0639485036        0.6897370668
 H         -0.0000001308        0.8316234146        1.0300600355
 H          0.8899461359        0.5207691696       -1.1076523920
 H         -0.0000015037       -1.0107013454       -1.0964424939
 H         -0.8899455048        0.5207710853       -1.1076513076
